ieee14/ieee14_syn_out.txt
ANDES 0.5.11.post2.dev0+ge17649b
Copyright (C) 2015-2018 Hantao Cui

ANDES comes with ABSOLUTELY NO WARRANTY
Use this software AT YOUR OWN RISK

Case file: ieee14_syn.dm
report Time: 10/22/2018 04:48:28 PM

Power flow method: NR
Number of iterations: 0.0
Flat-start: No

SUMMARY:
Buses                     14
Generators                 5
Committed Gens             0
Loads                     11
Shunts                     1
Lines                     20
Transformers               4
Areas                      1

EXTENDED SUMMARY:
                      P (pu)        Q (pu)

Generation             2.724         0.785
Load                    2.59         0.735
Shunt Inj                  0         0.212
Losses                0.1339         0.262
Line Charging        0.06364        0.2726

BUS DATA:
                      Vm(pu)       Va(deg)       Pg (pu)       Qg (pu)       Pl (pu)       Ql (pu)

1.0-Bus 1               1.06    -3.018e-12         2.324       -0.1689             0             0
2.0-Bus 2              1.045        -4.981           0.4         0.424         0.217         0.127
3.0-Bus 3               1.01        -12.72     9.992e-16        0.2339         0.942          0.19
4.0-Bus 4              1.019        -10.32    -1.721e-15    -1.558e-14         0.478        -0.039
5.0-Bus 5               1.02        -8.783     1.471e-15     1.422e-14         0.076         0.016
6.0-Bus 6               1.07        -14.22    -5.274e-16        0.1224         0.112         0.075
7.0-Bus 7              1.062        -13.37     9.176e-16    -2.181e-16             0             0
8.0-Bus 8               1.09        -13.37    -4.857e-17        0.1736             0             0
9.0-Bus 9              1.056        -14.95     1.499e-15      3.83e-15         0.295      -0.04601
10.0-Bus 10            1.051         -15.1    -1.138e-15    -2.567e-15          0.09         0.058
11.0-Bus 11            1.057         -14.8     2.776e-16      5.69e-16         0.035         0.018
12.0-Bus 12            1.055        -15.08     1.901e-15      2.37e-15         0.061         0.016
13.0-Bus 13             1.05        -15.16    -1.193e-15    -2.748e-15         0.135         0.058
14.0-Bus 14            1.036        -16.04    -2.776e-17      2.29e-16         0.149          0.05

LINE DATA:
                    From Bus        To Bus   P From (pu)   Q From (pu)     P To (pu)      Q To(pu)    P Loss(pu)    Q Loss(pu)

Line_1                     1             2         1.568       -0.2039        -1.525        0.2766       0.04295       0.07264
Line_10                    5             6        0.4406        0.1282       -0.4406      -0.08395     1.757e-11       0.04429
Line_11                    6            11       0.07341       0.03472      -0.07286      -0.03358     0.0005471      0.001146
Line_12                    6            12       0.07782       0.02492       -0.0771      -0.02343     0.0007168      0.001492
Line_13                    6            13        0.1774       0.07171       -0.1753      -0.06754      0.002115      0.004166
Line_14                    7             8     2.535e-12       -0.1691    -4.857e-17        0.1736     2.535e-12      0.004466
Line_15                    7             9        0.2809       0.05797       -0.2809      -0.04995     7.293e-12      0.008023
Line_16                    9            10       0.05239       0.04306      -0.05226      -0.04271     0.0001311     0.0003482
Line_17                    9            14       0.09438       0.03666      -0.09321      -0.03417      0.001168      0.002484
Line_18                   10            11      -0.03774      -0.01529       0.03786       0.01558     0.0001231     0.0002881
Line_19                   12            13        0.0161       0.00743      -0.01604     -0.007374      6.24e-05     5.645e-05
Line_2                     1             5        0.7555       0.03504       -0.7279        0.0258       0.02764       0.06084
Line_20                   13            14       0.05632       0.01692      -0.05579      -0.01583     0.0005358      0.001091
Line_3                     2             3        0.7319       0.03565       -0.7087       0.01584        0.0232       0.05149
Line_4                     2             4        0.5614      -0.02288       -0.5446       0.03394       0.01677       0.01106
Line_5                     2             5        0.4151      0.007627       -0.4061      -0.01634      0.009023     -0.008712
Line_6                     3             4       -0.2333       0.02809         0.237      -0.05421      0.003713      -0.02612
Line_7                     4             5       -0.6122        0.1567        0.6174       -0.1537      0.005165       0.00299
Line_8                     4             7        0.2809      -0.09421       -0.2809        0.1111      8.09e-12       0.01692
Line_9                     4             9        0.1609     -0.003212       -0.1609       0.01625     2.344e-12       0.01304

OTHER ALGEBRAIC VARIABLES:
                            

Q PV Bus 2             0.424
Q PV Bus 3            0.2339
Q PV Bus 6            0.1224
Q PV Bus 8            0.1736
Q SW Bus 1           -0.1689
P SW Bus 1             2.324
dwdt BusFreq 1             0
dwdt BusFreq 2             0
dwdt BusFreq 3             0
dwdt BusFreq 4             0
dwdt BusFreq 5             0
dwdt BusFreq 6             0
dwdt BusFreq 7             0
dwdt BusFreq 8             0
dwdt BusFreq 9             0
dwdt BusFreq 10             0
dwdt BusFreq 11             0
dwdt BusFreq 12             0
dwdt BusFreq 13             0
dwdt BusFreq 14             0
p Syn 1                2.324
q Syn 1              -0.1689
pm Syn 1               2.324
vf Syn 1               1.083
Id Syn 1              0.6301
Iq Syn 1               2.106
vd Syn 1              0.3767
vq Syn 1              0.9908
psid Syn 1            0.9908
psiq Syn 1           -0.3767
p Syn 2                  0.4
q Syn 2                0.424
pm Syn 2              0.4016
vf Syn 2               1.879
Id Syn 2              0.5122
Iq Syn 2              0.2207
vd Syn 2              0.3578
vq Syn 2              0.9818
psid Syn 2             0.983
psiq Syn 2           -0.3605
p Syn 3                    0
q Syn 3               0.2339
pm Syn 3             0.00028
vf Syn 3               1.415
Id Syn 3              0.2316
Iq Syn 3              0.0002
vd Syn 3            -0.00087
vq Syn 3                1.01
psid Syn 3              1.01
psiq Syn 3          -0.00033
p Syn 4                   -0
q Syn 4               0.1224
pm Syn 4             0.00021
vf Syn 4               1.642
Id Syn 4              0.1144
Iq Syn 4             0.00013
vd Syn 4            -0.00123
vq Syn 4                1.07
psid Syn 4              1.07
psiq Syn 4          -0.00064
p Syn 5                   -0
q Syn 5               0.1736
pm Syn 5             0.00042
vf Syn 5               1.886
Id Syn 5              0.1592
Iq Syn 5             0.00022
vd Syn 5            -0.00152
vq Syn 5                1.09
psid Syn 5              1.09
psiq Syn 5          -0.00109
wref TG1 1                 1
pout TG1 1             2.324
pin TG1 1              2.324
wref TG1 2                 1
pout TG1 2            0.4016
pin TG1 2             0.4016
vref AVR 1             1.065
vref AVR 2             1.139
vref AVR 3             1.081
vref AVR 4             1.152
vref AVR 5             1.185

OTHER STATE VARIABLES:
                            

xt BusFreq 1               0
w BusFreq 1                1
xdw BusFreq 1              2
xt BusFreq 2               0
w BusFreq 2                1
xdw BusFreq 2              2
xt BusFreq 3               0
w BusFreq 3                1
xdw BusFreq 3              2
xt BusFreq 4               0
w BusFreq 4                1
xdw BusFreq 4              2
xt BusFreq 5               0
w BusFreq 5                1
xdw BusFreq 5              2
xt BusFreq 6               0
w BusFreq 6                1
xdw BusFreq 6              2
xt BusFreq 7               0
w BusFreq 7                1
xdw BusFreq 7              2
xt BusFreq 8               0
w BusFreq 8                1
xdw BusFreq 8              2
xt BusFreq 9               0
w BusFreq 9                1
xdw BusFreq 9              2
xt BusFreq 10              0
w BusFreq 10               1
xdw BusFreq 10             2
xt BusFreq 11              0
w BusFreq 11               1
xdw BusFreq 11             2
xt BusFreq 12              0
w BusFreq 12               1
xdw BusFreq 12             2
xt BusFreq 13              0
w BusFreq 13               1
xdw BusFreq 13             2
xt BusFreq 14              0
w BusFreq 14               1
xdw BusFreq 14             2
delta Syn 1           0.3633
omega Syn 1                1
e1d Syn 1             0.1537
e1q Syn 1              1.052
e2d Syn 1             0.2397
e2q Syn 1              1.014
delta Syn 2           0.2626
omega Syn 2                1
e1d Syn 2             0.2009
e1q Syn 2              1.144
e2d Syn 2             0.3127
e2q Syn 2              1.094
delta Syn 3          -0.2228
omega Syn 3                1
e1d Syn 3            0.00018
e1q Syn 3              1.083
e2d Syn 3            0.00028
e2q Syn 3               1.06
delta Syn 4          -0.2494
omega Syn 4                1
e1d Syn 4            0.00026
e1q Syn 4              1.179
e2d Syn 4            0.00058
e2q Syn 4              1.125
delta Syn 5          -0.2347
omega Syn 5                1
e1d Syn 5            0.00044
e1q Syn 5              1.242
e2d Syn 5            0.00098
e2q Syn 5              1.166
xg1 TG1 1              2.324
xg2 TG1 1              2.324
xg3 TG1 1              1.766
xg1 TG1 2             0.4016
xg2 TG1 2             0.4016
xg3 TG1 2             0.3052
vm AVR 1                1.06
vr1 AVR 1              1.085
vr2 AVR 1           -0.00217
vfout AVR 1            1.083
vm AVR 2               1.045
vr1 AVR 2              1.886
vr2 AVR 2           -0.00188
vfout AVR 2            1.879
vm AVR 3                1.01
vr1 AVR 3              1.418
vr2 AVR 3           -0.00142
vfout AVR 3            1.415
vm AVR 4                1.07
vr1 AVR 4              1.646
vr2 AVR 4           -0.00164
vfout AVR 4            1.642
vm AVR 5                1.09
vr1 AVR 5              1.892
vr2 AVR 5           -0.00189
vfout AVR 5            1.886

